Caelus 9.04
/*---------------------------------------------------------------------------*
Web:   www.caelus-cml.com
\*---------------------------------------------------------------------------*/
FoamFile
{
    version     2.0;
    format      ascii;
    class       dictionary;
    object      controlDict;
}
// * * * * * * * * * * * * * * * * * * * * * * * * * * * * * * * * * * * * * //

application     pisoSolver;

startFrom       startTime;

startTime       0;

stopAt          endTime;

endTime         0.05;

deltaT          1e-4;

writeControl    timeStep;

writeInterval   500;

purgeWrite      0;

writeFormat     binary;

writePrecision  6;

writeCompression no;

timeFormat      general;

timePrecision   6;

runTimeModifiable true;


functions
{
    #include "readFields"
    #include "cuttingPlane"
    #include "streamLines"
    #include "forceCoeffs"
}


// ************************************************************************* //
