/*---------------------------------------------------------------------------*
Caelus 9.04
Web:   www.caelus-cml.com
\*---------------------------------------------------------------------------*/
FoamFile
{
    version     2.0;
    format      ascii;
    class       dictionary;
    object      fvSchemes;
}
// * * * * * * * * * * * * * * * * * * * * * * * * * * * * * * * * * * * * * //

ddtSchemes
{
    default backward;
}

d2dt2Schemes
{
}

gradSchemes
{
    default         Gauss linear;

    grad(nuTilda)   cellLimited Gauss linear 1;
    grad(U)         cellLimited Gauss linear 1;
}

divSchemes
{
    default         none;

    div(phi,U)      Gauss linearUpwindMDBJ grad(U);
    div(phi,k)      Gauss linearUpwindMDBJ grad(U);
    div(phi,nuTilda) Gauss linearUpwindMDBJ grad(U);
    div((nuEff*dev(T(grad(U))))) Gauss linear;
}

laplacianSchemes
{
    default         Gauss linear limited 0.33;
}

interpolationSchemes
{
    default         linear;
}

snGradSchemes
{
    default         limited 0.33;
}


// ************************************************************************* //
