/*---------------------------------------------------------------------------*
Caelus 6.10
Web:   www.caelus-cml.com
\*---------------------------------------------------------------------------*/
FoamFile
{
    version     2.0;
    format      ascii;
    class       dictionary;
    location    "system";
    object      fvOptions;
}
// * * * * * * * * * * * * * * * * * * * * * * * * * * * * * * * * * * * * * //

MRF1
{
    type            MRFSource;
    active          true;
    selectionMode   cellZone;
    cellZone        rotor;

    MRFSourceCoeffs
    {
        origin      (0 0 0);
        axis        (0 0 1);
        omega       104.72;
    }
}


// ************************************************************************* //
