/*---------------------------------------------------------------------------*\
Caelus 9.04
 Web:      www.caelus-cml.com 
\*---------------------------------------------------------------------------*/
FoamFile
{
    version     2.0;
    format      ascii;
    class       volScalarField;
    location    "0";
    object      nuTilda;
}
// * * * * * * * * * * * * * * * * * * * * * * * * * * * * * * * * * * * * * //

dimensions      [0 2 -1 0 0 0 0];

internalField   uniform 4.55841e-05;

boundaryField
{
    inlet
    {
        type            fixedValue;
        value           uniform 4.55841e-05;
    }
    left
    {
        type            empty;
    }
    outlet
    {
        type            zeroGradient;
    }
    right
    {
        type            empty;
    }
    top
    {
        type            fixedValue;
        value           uniform 0;
    }
    wall
    {
        type            fixedValue;
        value           uniform 0;
    }
}


// ************************************************************************* //
