/*---------------------------------------------------------------------------*
Caelus 9.04
Web:   www.caelus-cml.com
\*---------------------------------------------------------------------------*/
FoamFile
{
    version     2.0;
    format      ascii;
    class       dictionary;
    location    "system";
    object      fvSchemes;
}
// * * * * * * * * * * * * * * * * * * * * * * * * * * * * * * * * * * * * * //

ddtSchemes
{
    default         Euler;
}

gradSchemes
{
    default         Gauss linear;
}

divSchemes
{
    default         none;
    div(phi,Urel)   Gauss linearBJ;
    div(phi,k)      Gauss linearBJ;
    div(phi,epsilon) Gauss linearBJ;
    div((nuEff*dev(T(grad(Urel))))) Gauss linear;
}

laplacianSchemes
{
    default         none;
    laplacian(nuEff,Urel) Gauss linear corrected;
    laplacian((1|A(Urel)),p) Gauss linear corrected;
    laplacian(DkEff,k) Gauss linear corrected;
    laplacian(DepsilonEff,epsilon) Gauss linear corrected;
}

interpolationSchemes
{
    default         linear;
}

snGradSchemes
{
    default         corrected;
}


// ************************************************************************* //
