/*---------------------------------------------------------------------------*
Caelus 9.04
Web:   www.caelus-cml.com
\*---------------------------------------------------------------------------*/
FoamFile
{
    version     2.0;
    format      ascii;
    class       dictionary;
    location    "system";
    object      fvSolution;
}
// * * * * * * * * * * * * * * * * * * * * * * * * * * * * * * * * * * * * * //

solvers
{
    p
    {
        solver          GAMG;
        tolerance       1e-08;
        relTol          0.05;
        smoother        SSGS;
        cacheAgglomeration true;
        nCellsInCoarsestLevel 20;
        agglomerator    algebraicPair;
        mergeLevels     1;
    }

    pFinal
    {
        $p;
        relTol          0;
    }

    "Urel.*"
    {
        solver          smoothSolver;
        smoother        USGS;
        nSweeps         2;
        tolerance       1e-07;
        relTol          0.1;
    }

    "k.*"
    {
        solver          smoothSolver;
        smoother        USGS;
        nSweeps         2;
        tolerance       1e-07;
        relTol          0.1;
    }

    "epsilon.*"
    {
        solver          smoothSolver;
        smoother        USGS;
        nSweeps         2;
        tolerance       1e-07;
        relTol          0.1;
    }
}

PIMPLE
{
    nOuterCorrectors 1;
    nCorrectors     2;
    nNonOrthogonalCorrectors 0;
    pRefCell        0;
    pRefValue       0;
}

relaxationFactors
{
    fields
    {
    }
    equations
    {
        "Urel.*"        1;
        "k.*"           1;
        "epsilon.*"     1;
    }
}


// ************************************************************************* //
