/*---------------------------------------------------------------------------*
Caelus 5.10
Web:   www.caelus-cml.com
\*---------------------------------------------------------------------------*/
FoamFile
{
    version     2.0;
    format      ascii;
    class       dictionary;
    location    "constant";
    object      thermoBaffleProperties;
}
// * * * * * * * * * * * * * * * * * * * * * * * * * * * * * * * * * * * * * //

thermoBaffleModel  none;

active          no;

regionName      none;

thermoBaffle2DCoeffs
{
}

noThermoCoeffs
{
}
// ************************************************************************* //
