/*---------------------------------------------------------------------------*
Caelus 9.04
Web:   www.caelus-cml.com
\*---------------------------------------------------------------------------*/
FoamFile
{
    version         2.0;
    format          ascii;
    class           volScalarField;
    location        "0";
    object          p;
}

// * * * * * * * * * * * * * * * * * * * * * * * * * * * * * * * * * * * * * //


dimensions      [1 -1 -2 0 0 0 0];

internalField   uniform 85418.9;

boundaryField
{
    inlet-outlet
    {
        type            fixedValue;
        value           uniform 85418.9;
    }

    body            
    {
        type            slip;
    }

    defaultFaces    
    {
        type            empty;
    }
}


// ************************************************************************* //
