/*---------------------------------------------------------------------------*
Caelus 9.04
Web:   www.caelus-cml.com
\*---------------------------------------------------------------------------*/
FoamFile
{
    version     2.0;
    format      ascii;
    class       dictionary;
    object      fvSolution;
}
// * * * * * * * * * * * * * * * * * * * * * * * * * * * * * * * * * * * * * //

solvers
{
    p
    {
        solver           GAMG;
        tolerance        1e-7;
        relTol           0.1;
        smoother         SSGS;
        nPreSweeps       0;
        nPostSweeps      2;
        cacheAgglomeration on;
        agglomerator     algebraicPair;
        nCellsInCoarsestLevel 10;
        mergeLevels      1;
    }

    U
    {
        solver           smoothSolver;
        smoother         USGS;
        tolerance        1e-8;
        relTol           0.1;
        nSweeps          1;
    }

    k
    {
        solver           smoothSolver;
        smoother         USGS;
        tolerance        1e-8;
        relTol           0.1;
        nSweeps          1;
    }

    epsilon
    {
        solver           smoothSolver;
        smoother         USGS;
        tolerance        1e-8;
        relTol           0.1;
        nSweeps          1;
    }
}

SIMPLE
{
    nNonOrthogonalCorrectors 0;

    residualControl
    {
        p               1e-3;
        U               1e-4;
        "(k|epsilon)"   1e-4;
    }
}

relaxationFactors
{
    fields
    {
        p               0.3;
    }
    equations
    {
        U               0.7;
        k               0.7;
        epsilon         0.7;
    }
}

cache
{
    grad(U);
}

// ************************************************************************* //
