/*---------------------------------------------------------------------------*
Caelus 6.04
Web:   www.caelus-cml.com
\*---------------------------------------------------------------------------*/
FoamFile
{
    version     2.0;
    format      ascii;
    class       dictionary;
    location    "system";
    object      fvSchemes;
}
// * * * * * * * * * * * * * * * * * * * * * * * * * * * * * * * * * * * * * //

ddtSchemes
{
    default         Euler;
}

gradSchemes
{
    default         Gauss linear;
}

divSchemes
{
    div(rho*phi,U)   Gauss linear;
    div(phi,alpha)   Gauss linearVanLeer;
    div(phirb,alpha) Gauss interfaceCompression;
    div(phi,k)       Gauss upwind;
    div(phi,epsilon) Gauss upwind;
    div(phi,R)       Gauss upwind;
    div(R)           Gauss linear;
    div(phi,nuTilda) Gauss upwind;
    div((muEff*dev(T(grad(U))))) Gauss linear;
}

laplacianSchemes
{
    default         Gauss linear corrected;
}

interpolationSchemes
{
    default         linear;
}

snGradSchemes
{
    default         corrected;
}

fluxRequired
{
    default         no;
    p_rgh;
    pcorr;
    alpha;
}


// ************************************************************************* //
