/*---------------------------------------------------------------------------*\
Caelus 9.04
 Web:      www.caelus-cml.com 
\*---------------------------------------------------------------------------*/
FoamFile
{
    version     2.0;
    format      ascii;
    class       volScalarField;
    location    "0";
    object      k;
}
// * * * * * * * * * * * * * * * * * * * * * * * * * * * * * * * * * * * * * //

dimensions      [0 2 -2 0 0 0 0];

internalField   uniform 0.0010848;

boundaryField
{
    bottom
    {
        type            symmetryPlane;
    }
    inflow
    {
        type            fixedValue;
        value           uniform 0.0010848;
    }
    left
    {
        type            empty;
    }
    outflow
    {
        type            zeroGradient;
    }
    right
    {
        type            empty;
    }
    top
    {
        type            symmetryPlane;
    }
    wall
    {
        type            fixedValue;
        value           uniform 1e-10;
    }
}


// ************************************************************************* //
