/*-------------------------------------------------------------------------------*
Caelus 9.04
Web:   www.caelus-cml.com
\*------------------------------------------------------------------------------*/

FoamFile
{
    version     2.0;
    format      ascii;
    class       dictionary;
    object      controlDict;
}
// * * * * * * * * * * * * * * * * * * * * * * * * * * * * * * * * * * * * * //

application     icoFoam;

startFrom       startTime;

startTime       0;

stopAt          endTime;

endTime         0.5;

deltaT          0.005;

writeControl    timeStep;

writeInterval   20;

purgeWrite      0;

writeFormat     ascii;

writePrecision  6;

writeCompression off;

timeFormat      general;

timePrecision   6;

runTimeModifiable true;

functions
{
    fileUpdate1
    {
        type            timeActivatedFileUpdate;
        functionObjectLibs ("libutilityFunctionObjects.so");
        outputControl   timeStep;
        outputInterval  1;
        fileToUpdate    "$CAELUS_CASE/system/fvSolution";

        timeVsFile
        (
            ( -1   "$CAELUS_CASE/system/fvSolution.0"  )
            ( 0.10 "$CAELUS_CASE/system/fvSolution.10" )
            ( 0.20 "$CAELUS_CASE/system/fvSolution.20" )
            ( 0.35 "$CAELUS_CASE/system/fvSolution.35" )
        );
    }
}

// ************************************************************************* //
