/*---------------------------------------------------------------------------*
Caelus 9.04
Web:   www.caelus-cml.com
\*---------------------------------------------------------------------------*/
FoamFile
{
    version     2.0;
    format      ascii;
    class       dictionary;
    object      particleTrackDict;
}
// * * * * * * * * * * * * * * * * * * * * * * * * * * * * * * * * * * * * * //

cloudName       reactingCloud1Tracks;

fields ( d U T );

// ************************************************************************* //

