/*-------------------------------------------------------------------------------*
Caelus 9.04
Web:   www.caelus-cml.com
\*------------------------------------------------------------------------------*/

FoamFile
{
    version     2.0;
    format      ascii;
    class       dictionary;
    object      postProcessingDict;
}
// * * * * * * * * * * * * * * * * * * * * * * * * * * * * * * * * * * * * * //

functions
{
    cloudInfo1
    {
        type            cloudInfo;
        functionObjectLibs ("libcloudFunctionObjects.so");
        enabled         true;
        outputControl   timeStep;
        outputInterval  1;

        clouds          (myCloud1);
    }
}

// ************************************************************************* //
