/*---------------------------------------------------------------------------*
Caelus 6.10
Web:   www.caelus-cml.com
\*---------------------------------------------------------------------------*/
FoamFile
{
    version     2.0;
    format      ascii;
    class       volVectorField;
    object      U;
}
// * * * * * * * * * * * * * * * * * * * * * * * * * * * * * * * * * * * * * //

dimensions      [0 1 -1 0 0 0 0];

internalField   uniform (25.75 3.62 0);

boundaryField
{
    inlet
    {
        type            fixedValue;
        value           uniform (25.75 3.62 0);
    }

    outlet
    {
        type            zeroGradient;
    }

    wall
    {
        type            noSlipWall;
    }

    frontAndBack
    {
        type            empty;
    }
}

// ************************************************************************* //
