/*---------------------------------------------------------------------------*
Caelus 9.04
Web:   www.caelus-cml.com
\*---------------------------------------------------------------------------*/
FoamFile
{
    version     2.0;
    format      binary;
    class       volVectorField;
    location    "0";
    object      U;
}
// * * * * * * * * * * * * * * * * * * * * * * * * * * * * * * * * * * * * * //

dimensions      [0 1 -1 0 0 0 0];

internalField   uniform (17.3 0 0);

boundaryField
{
    triangle
    {
        type            noSlipWall;
    }
    inlet
    {
        type            fixedValue;
        value           uniform (17.3 0 0);
    }
    outlet
    {
        type            inletOutlet;
        inletValue      uniform (0 0 0);
        value           uniform (0 0 0);
    }
    walls
    {
        type            noSlipWall;
    }
    cyc_half0
    {
        type            empty;
    }
    cyc_half1
    {
        type            empty;
    }
}
