/*---------------------------------------------------------------------------*
Caelus 9.04
Web:   www.caelus-cml.com
\*---------------------------------------------------------------------------*/
FoamFile
{
    version     2.0;
    format      ascii;
    class       dictionary;
    object      controlDict;
}

// NB: the #functions do not work here
// * * * * * * * * * * * * * * * * * * * * * * * * * * * * * * * * * * * * * //

Documentation
{
    docBrowser      "firefox %f";
    doxyDocDirs
    (
        "~CAELUS/html"
        "$CAELUS_PROJECT_DIR/doc/Doxygen/html"
    );
    doxySourceFileExts
    (
        "App_8C.html"
        "_8C.html"
    );
}


InfoSwitches
{
    // The default ASCII write precision
    writePrecision  6;

    // Enable job info
    writeJobInfo    0;

    writeDictionaries 0;

    // Write lagrangian "positions" file in v8.04 format (and earlier)
    writeLagrangianCoordinates 1;

    allowSystemOperations    0;

    disableFunctionEntries   0;

    // Write lagrangian "positions" file in v8.04 format (and earlier)
    writeLagrangianPositions 1;


}


OptimisationSwitches
{
    // On NFS mounted file system: maximum wait for files to appear/get
    // updated. Set to 0 on distributed case.
    fileModificationSkew 10;

    //- Modification checking:
    //  - timeStamp         : use modification time on file
    //  - inotify           : use inotify framework
    //  - timeStampMaster   : do time stamp (and file reading) only on master.
    //  - inotifyMaster     : do inotify (and file reading) only on master.
    fileModificationChecking timeStampMaster;//inotify;timeStamp;inotifyMaster;

    commsType       nonBlocking; //scheduled; //blocking;
    floatTransfer   0;
    nProcsSimpleSum 0;

    // Force dumping (at next timestep) upon signal (-1 to disable)
    writeNowSignal          -1; //10;
    // Force dumping (at next timestep) upon signal (-1 to disable) and exit
    stopAtWriteNowSignal    -1;

    matrixConstraintFillIn   4;
}


DebugSwitches
{
    AMIInterpolation                                          0;
    AMIMethod                                                 0;
    APIdiffCoefFunc                                           0;
    Ar                                                        0;
    Arrhenius                                                 0;
    BSpline                                                   0;
    BasicChemistryModel<psiReactionThermo>                    0;
    BasicChemistryModel<rhoReactionThermo>                    0;
    BiCGStab                                                  0;
    BlockCoeffNorm                                            0;
    BlockLduInterfaceField<hyperVector2>                      0;
    BlockLduInterfaceField<hyperVector3>                      0;
    BlockLduInterfaceField<hyperVector4>                      0;
    BlockLduInterfaceField<hyperVector6>                      0;
    BlockLduInterfaceField<hyperVector8>                      0;
    BlockLduInterfaceField<scalar>                            0;
    BlockLduInterfaceField<sphericalTensor>                   0;
    BlockLduInterfaceField<symmTensor>                        0;
    BlockLduInterfaceField<tensor>                            0;
    BlockLduInterfaceField<vector>                            0;
    BlockLduPrecon                                            0;
    BlockLduSmoother                                          0;
    BlockLduSolver                                            0;
    BrunDrippingInjection                                     0;
    C                                                         0;
    C10H22                                                    0;
    C12H26                                                    0;
    C13H28                                                    0;
    C14H30                                                    0;
    C16H34                                                    0;
    C2H5OH                                                    0;
    C2H6                                                      0;
    C2H6O                                                     0;
    C3H6O                                                     0;
    C3H8                                                      0;
    C4H10O                                                    0;
    C6H14                                                     0;
    C6H6                                                      0;
    C7H16                                                     0;
    C7H8                                                      0;
    C8H10                                                     0;
    C8H18                                                     0;
    C9H20                                                     0;
    CG                                                        0;
    CH3OH                                                     0;
    CH4N2O                                                    0;
    COxidationDiffusionLimitedRate                            0;
    COxidationHurtMitchell                                    0;
    COxidationIntrinsicRate                                   0;
    COxidationKineticDiffusionLimitedRate                     0;
    COxidationMurphyShaddix                                   0;
    CaCO3                                                     0;
    CallbackRegistry                                          0;
    CarreauYasudaCross                                        0;
    Cholesky                                                  0;
    Chung                                                     0;
    Cloud<basicKinematicCollidingParcel>                      0;
    Cloud<basicKinematicParcel>                               0;
    Cloud<basicReactingMultiphaseParcel>                      0;
    Cloud<basicReactingParcel>                                0;
    Cloud<basicThermoParcel>                                  0;
    Cloud<findCellParticle>                                   0;
    Cloud<indexedParticle>                                    0;
    Cloud<passiveParticle>                                    0;
    Cloud<solidParticle>                                      0;
    Cloud<streamLineParticle>                                 0;
    Cloud<trackedParticle>                                    0;
    CoarsePBiCGStab                                           0;
    CoarsePCG                                                 0;
    CoherentStructureModel                                    0;
    ConstantDragCoefficient                                   0;
    ConstantLiftCoefficient                                   0;
    CourantNo                                                 0;
    CrankNicolson                                             0;
    CrossPowerLaw                                             0;
    DAC<psiReactionThermo,const<eConst<adiabaticPerfectFluid<specie>>,sensibleInternalEnergy>>          0;
    DAC<psiReactionThermo,const<eConst<incompressiblePerfectGas<specie>>,sensibleInternalEnergy>>       0;
    DAC<psiReactionThermo,const<eConst<perfectFluid<specie>>,sensibleInternalEnergy>>                   0;
    DAC<psiReactionThermo,const<eConst<perfectGas<specie>>,sensibleInternalEnergy>>                     0;
    DAC<psiReactionThermo,const<eConst<rhoConst<specie>>,sensibleInternalEnergy>>                       0;
    DAC<psiReactionThermo,const<hConst<adiabaticPerfectFluid<specie>>,sensibleEnthalpy>>                0;
    DAC<psiReactionThermo,const<hConst<incompressiblePerfectGas<specie>>,sensibleEnthalpy>>             0;
    DAC<psiReactionThermo,const<hConst<perfectFluid<specie>>,sensibleEnthalpy>>                         0;
    DAC<psiReactionThermo,const<hConst<perfectGas<specie>>,sensibleEnthalpy>>                           0;
    DAC<psiReactionThermo,const<hConst<rhoConst<specie>>,sensibleEnthalpy>>                             0;
    DAC<psiReactionThermo,polynomial<hPolynomial<icoPolynomial<specie>>,sensibleEnthalpy>>              0;
    DAC<psiReactionThermo,polynomial<hPolynomial<icoPolynomial<specie>>,sensibleInternalEnergy>>        0;
    DAC<psiReactionThermo,sutherland<janaf<incompressiblePerfectGas<specie>>,sensibleEnthalpy>>         0;
    DAC<psiReactionThermo,sutherland<janaf<incompressiblePerfectGas<specie>>,sensibleInternalEnergy>>   0;
    DAC<psiReactionThermo,sutherland<janaf<perfectGas<specie>>,sensibleEnthalpy>>                       0;
    DAC<psiReactionThermo,sutherland<janaf<perfectGas<specie>>,sensibleInternalEnergy>>                 0;
    DAC<rhoReactionThermo,const<eConst<adiabaticPerfectFluid<specie>>,sensibleInternalEnergy>>          0;
    DAC<rhoReactionThermo,const<eConst<incompressiblePerfectGas<specie>>,sensibleInternalEnergy>>       0;
    DAC<rhoReactionThermo,const<eConst<perfectFluid<specie>>,sensibleInternalEnergy>>                   0;
    DAC<rhoReactionThermo,const<eConst<perfectGas<specie>>,sensibleInternalEnergy>>                     0;
    DAC<rhoReactionThermo,const<eConst<rhoConst<specie>>,sensibleInternalEnergy>>                       0;
    DAC<rhoReactionThermo,const<hConst<adiabaticPerfectFluid<specie>>,sensibleEnthalpy>>                0;
    DAC<rhoReactionThermo,const<hConst<incompressiblePerfectGas<specie>>,sensibleEnthalpy>>             0;
    DAC<rhoReactionThermo,const<hConst<perfectFluid<specie>>,sensibleEnthalpy>>                         0;
    DAC<rhoReactionThermo,const<hConst<perfectGas<specie>>,sensibleEnthalpy>>                           0;
    DAC<rhoReactionThermo,const<hConst<rhoConst<specie>>,sensibleEnthalpy>>                             0;
    DAC<rhoReactionThermo,polynomial<hPolynomial<icoPolynomial<specie>>,sensibleEnthalpy>>              0;
    DAC<rhoReactionThermo,polynomial<hPolynomial<icoPolynomial<specie>>,sensibleInternalEnergy>>        0;
    DAC<rhoReactionThermo,sutherland<janaf<incompressiblePerfectGas<specie>>,sensibleEnthalpy>>         0;
    DAC<rhoReactionThermo,sutherland<janaf<incompressiblePerfectGas<specie>>,sensibleInternalEnergy>>   0;
    DAC<rhoReactionThermo,sutherland<janaf<perfectGas<specie>>,sensibleEnthalpy>>                       0;
    DAC<rhoReactionThermo,sutherland<janaf<perfectGas<specie>>,sensibleInternalEnergy>>                 0;
    DIC                                                 0;
    DILU                                                0;
    DRG<psiReactionThermo,const<eConst<adiabaticPerfectFluid<specie>>,sensibleInternalEnergy>>              0;
    DRG<psiReactionThermo,const<eConst<incompressiblePerfectGas<specie>>,sensibleInternalEnergy>>           0;
    DRG<psiReactionThermo,const<eConst<perfectFluid<specie>>,sensibleInternalEnergy>>                       0;
    DRG<psiReactionThermo,const<eConst<perfectGas<specie>>,sensibleInternalEnergy>>                         0;
    DRG<psiReactionThermo,const<eConst<rhoConst<specie>>,sensibleInternalEnergy>>                           0;
    DRG<psiReactionThermo,const<hConst<adiabaticPerfectFluid<specie>>,sensibleEnthalpy>>                    0;
    DRG<psiReactionThermo,const<hConst<incompressiblePerfectGas<specie>>,sensibleEnthalpy>>                 0;
    DRG<psiReactionThermo,const<hConst<perfectFluid<specie>>,sensibleEnthalpy>>                             0;
    DRG<psiReactionThermo,const<hConst<perfectGas<specie>>,sensibleEnthalpy>>                               0;
    DRG<psiReactionThermo,const<hConst<rhoConst<specie>>,sensibleEnthalpy>>                                 0;
    DRG<psiReactionThermo,polynomial<hPolynomial<icoPolynomial<specie>>,sensibleEnthalpy>>                  0;
    DRG<psiReactionThermo,polynomial<hPolynomial<icoPolynomial<specie>>,sensibleInternalEnergy>>            0;
    DRG<psiReactionThermo,sutherland<janaf<incompressiblePerfectGas<specie>>,sensibleEnthalpy>>             0;
    DRG<psiReactionThermo,sutherland<janaf<incompressiblePerfectGas<specie>>,sensibleInternalEnergy>>       0;
    DRG<psiReactionThermo,sutherland<janaf<perfectGas<specie>>,sensibleEnthalpy>>                           0;
    DRG<psiReactionThermo,sutherland<janaf<perfectGas<specie>>,sensibleInternalEnergy>>                     0;
    DRG<rhoReactionThermo,const<eConst<adiabaticPerfectFluid<specie>>,sensibleInternalEnergy>>              0;
    DRG<rhoReactionThermo,const<eConst<incompressiblePerfectGas<specie>>,sensibleInternalEnergy>>           0;
    DRG<rhoReactionThermo,const<eConst<perfectFluid<specie>>,sensibleInternalEnergy>>                       0;
    DRG<rhoReactionThermo,const<eConst<perfectGas<specie>>,sensibleInternalEnergy>>                         0;
    DRG<rhoReactionThermo,const<eConst<rhoConst<specie>>,sensibleInternalEnergy>>                           0;
    DRG<rhoReactionThermo,const<hConst<adiabaticPerfectFluid<specie>>,sensibleEnthalpy>>                    0;
    DRG<rhoReactionThermo,const<hConst<incompressiblePerfectGas<specie>>,sensibleEnthalpy>>                 0;
    DRG<rhoReactionThermo,const<hConst<perfectFluid<specie>>,sensibleEnthalpy>>                             0;
    DRG<rhoReactionThermo,const<hConst<perfectGas<specie>>,sensibleEnthalpy>>                               0;
    DRG<rhoReactionThermo,const<hConst<rhoConst<specie>>,sensibleEnthalpy>>                                 0;
    DRG<rhoReactionThermo,polynomial<hPolynomial<icoPolynomial<specie>>,sensibleEnthalpy>>                  0;
    DRG<rhoReactionThermo,polynomial<hPolynomial<icoPolynomial<specie>>,sensibleInternalEnergy>>            0;
    DRG<rhoReactionThermo,sutherland<janaf<incompressiblePerfectGas<specie>>,sensibleEnthalpy>>             0;
    DRG<rhoReactionThermo,sutherland<janaf<incompressiblePerfectGas<specie>>,sensibleInternalEnergy>>       0;
    DRG<rhoReactionThermo,sutherland<janaf<perfectGas<specie>>,sensibleEnthalpy>>                           0;
    DRG<rhoReactionThermo,sutherland<janaf<perfectGas<specie>>,sensibleInternalEnergy>>                     0;
    DRGEP<psiReactionThermo,const<eConst<adiabaticPerfectFluid<specie>>,sensibleInternalEnergy>>            0;
    DRGEP<psiReactionThermo,const<eConst<incompressiblePerfectGas<specie>>,sensibleInternalEnergy>>         0;
    DRGEP<psiReactionThermo,const<eConst<perfectFluid<specie>>,sensibleInternalEnergy>>                     0;
    DRGEP<psiReactionThermo,const<eConst<perfectGas<specie>>,sensibleInternalEnergy>>                       0;
    DRGEP<psiReactionThermo,const<eConst<rhoConst<specie>>,sensibleInternalEnergy>>                         0;
    DRGEP<psiReactionThermo,const<hConst<adiabaticPerfectFluid<specie>>,sensibleEnthalpy>>                  0;
    DRGEP<psiReactionThermo,const<hConst<incompressiblePerfectGas<specie>>,sensibleEnthalpy>>               0;
    DRGEP<psiReactionThermo,const<hConst<perfectFluid<specie>>,sensibleEnthalpy>>                           0;
    DRGEP<psiReactionThermo,const<hConst<perfectGas<specie>>,sensibleEnthalpy>>                             0;
    DRGEP<psiReactionThermo,const<hConst<rhoConst<specie>>,sensibleEnthalpy>>                               0;
    DRGEP<psiReactionThermo,polynomial<hPolynomial<icoPolynomial<specie>>,sensibleEnthalpy>>                0;
    DRGEP<psiReactionThermo,polynomial<hPolynomial<icoPolynomial<specie>>,sensibleInternalEnergy>>          0;
    DRGEP<psiReactionThermo,sutherland<janaf<incompressiblePerfectGas<specie>>,sensibleEnthalpy>>           0;
    DRGEP<psiReactionThermo,sutherland<janaf<incompressiblePerfectGas<specie>>,sensibleInternalEnergy>>     0;
    DRGEP<psiReactionThermo,sutherland<janaf<perfectGas<specie>>,sensibleEnthalpy>>                         0;
    DRGEP<psiReactionThermo,sutherland<janaf<perfectGas<specie>>,sensibleInternalEnergy>>                   0;
    DRGEP<rhoReactionThermo,const<eConst<adiabaticPerfectFluid<specie>>,sensibleInternalEnergy>>            0;
    DRGEP<rhoReactionThermo,const<eConst<incompressiblePerfectGas<specie>>,sensibleInternalEnergy>>         0;
    DRGEP<rhoReactionThermo,const<eConst<perfectFluid<specie>>,sensibleInternalEnergy>>                     0;
    DRGEP<rhoReactionThermo,const<eConst<perfectGas<specie>>,sensibleInternalEnergy>>                       0;
    DRGEP<rhoReactionThermo,const<eConst<rhoConst<specie>>,sensibleInternalEnergy>>                         0;
    DRGEP<rhoReactionThermo,const<hConst<adiabaticPerfectFluid<specie>>,sensibleEnthalpy>>                  0;
    DRGEP<rhoReactionThermo,const<hConst<incompressiblePerfectGas<specie>>,sensibleEnthalpy>>               0;
    DRGEP<rhoReactionThermo,const<hConst<perfectFluid<specie>>,sensibleEnthalpy>>                           0;
    DRGEP<rhoReactionThermo,const<hConst<perfectGas<specie>>,sensibleEnthalpy>>                             0;
    DRGEP<rhoReactionThermo,const<hConst<rhoConst<specie>>,sensibleEnthalpy>>                               0;
    DRGEP<rhoReactionThermo,polynomial<hPolynomial<icoPolynomial<specie>>,sensibleEnthalpy>>                0;
    DRGEP<rhoReactionThermo,polynomial<hPolynomial<icoPolynomial<specie>>,sensibleInternalEnergy>>          0;
    DRGEP<rhoReactionThermo,sutherland<janaf<incompressiblePerfectGas<specie>>,sensibleEnthalpy>>           0;
    DRGEP<rhoReactionThermo,sutherland<janaf<incompressiblePerfectGas<specie>>,sensibleInternalEnergy>>     0;
    DRGEP<rhoReactionThermo,sutherland<janaf<perfectGas<specie>>,sensibleEnthalpy>>                         0;
    DRGEP<rhoReactionThermo,sutherland<janaf<perfectGas<specie>>,sensibleInternalEnergy>>                   0;
    DarcyForchheimer                                    0;
    DataEntry                                           0;
    Diagonal                                            0;
    DispersionModel<kinematicCloudType>                 0;
    EFA<psiReactionThermo,const<eConst<adiabaticPerfectFluid<specie>>,sensibleInternalEnergy>>          0;
    EFA<psiReactionThermo,const<eConst<incompressiblePerfectGas<specie>>,sensibleInternalEnergy>>       0;
    EFA<psiReactionThermo,const<eConst<perfectFluid<specie>>,sensibleInternalEnergy>>                   0;
    EFA<psiReactionThermo,const<eConst<perfectGas<specie>>,sensibleInternalEnergy>>                     0;
    EFA<psiReactionThermo,const<eConst<rhoConst<specie>>,sensibleInternalEnergy>>                       0;
    EFA<psiReactionThermo,const<hConst<adiabaticPerfectFluid<specie>>,sensibleEnthalpy>>                0;
    EFA<psiReactionThermo,const<hConst<incompressiblePerfectGas<specie>>,sensibleEnthalpy>>             0;
    EFA<psiReactionThermo,const<hConst<perfectFluid<specie>>,sensibleEnthalpy>>                         0;
    EFA<psiReactionThermo,const<hConst<perfectGas<specie>>,sensibleEnthalpy>>                           0;
    EFA<psiReactionThermo,const<hConst<rhoConst<specie>>,sensibleEnthalpy>>                             0;
    EFA<psiReactionThermo,polynomial<hPolynomial<icoPolynomial<specie>>,sensibleEnthalpy>>              0;
    EFA<psiReactionThermo,polynomial<hPolynomial<icoPolynomial<specie>>,sensibleInternalEnergy>>        0;
    EFA<psiReactionThermo,sutherland<janaf<incompressiblePerfectGas<specie>>,sensibleEnthalpy>>         0;
    EFA<psiReactionThermo,sutherland<janaf<incompressiblePerfectGas<specie>>,sensibleInternalEnergy>>   0;
    EFA<psiReactionThermo,sutherland<janaf<perfectGas<specie>>,sensibleEnthalpy>>                       0;
    EFA<psiReactionThermo,sutherland<janaf<perfectGas<specie>>,sensibleInternalEnergy>>                 0;
    EFA<rhoReactionThermo,const<eConst<adiabaticPerfectFluid<specie>>,sensibleInternalEnergy>>          0;
    EFA<rhoReactionThermo,const<eConst<incompressiblePerfectGas<specie>>,sensibleInternalEnergy>>       0;
    EFA<rhoReactionThermo,const<eConst<perfectFluid<specie>>,sensibleInternalEnergy>>                   0;
    EFA<rhoReactionThermo,const<eConst<perfectGas<specie>>,sensibleInternalEnergy>>                     0;
    EFA<rhoReactionThermo,const<eConst<rhoConst<specie>>,sensibleInternalEnergy>>                       0;
    EFA<rhoReactionThermo,const<hConst<adiabaticPerfectFluid<specie>>,sensibleEnthalpy>>                0;
    EFA<rhoReactionThermo,const<hConst<incompressiblePerfectGas<specie>>,sensibleEnthalpy>>             0;
    EFA<rhoReactionThermo,const<hConst<perfectFluid<specie>>,sensibleEnthalpy>>                         0;
    EFA<rhoReactionThermo,const<hConst<perfectGas<specie>>,sensibleEnthalpy>>                           0;
    EFA<rhoReactionThermo,const<hConst<rhoConst<specie>>,sensibleEnthalpy>>                             0;
    EFA<rhoReactionThermo,polynomial<hPolynomial<icoPolynomial<specie>>,sensibleEnthalpy>>              0;
    EFA<rhoReactionThermo,polynomial<hPolynomial<icoPolynomial<specie>>,sensibleInternalEnergy>>        0;
    EFA<rhoReactionThermo,sutherland<janaf<incompressiblePerfectGas<specie>>,sensibleEnthalpy>>         0;
    EFA<rhoReactionThermo,sutherland<janaf<incompressiblePerfectGas<specie>>,sensibleInternalEnergy>>   0;
    EFA<rhoReactionThermo,sutherland<janaf<perfectGas<specie>>,sensibleEnthalpy>>                       0;
    EFA<rhoReactionThermo,sutherland<janaf<perfectGas<specie>>,sensibleInternalEnergy>>                 0;
    ErgunWenYuDrag                                      0;
    Euler                                               0;
    EulerRotation                                       0;
    EulerImplicit<TDAC<psiReactionThermo,const<eConst<adiabaticPerfectFluid<specie>>,sensibleInternalEnergy>>>              0;
    EulerImplicit<TDAC<psiReactionThermo,const<eConst<incompressiblePerfectGas<specie>>,sensibleInternalEnergy>>>           0;
    EulerImplicit<TDAC<psiReactionThermo,const<eConst<perfectFluid<specie>>,sensibleInternalEnergy>>>                       0;
    EulerImplicit<TDAC<psiReactionThermo,const<eConst<perfectGas<specie>>,sensibleInternalEnergy>>>                         0;
    EulerImplicit<TDAC<psiReactionThermo,const<eConst<rhoConst<specie>>,sensibleInternalEnergy>>>                           0;
    EulerImplicit<TDAC<psiReactionThermo,const<hConst<adiabaticPerfectFluid<specie>>,sensibleEnthalpy>>>                    0;
    EulerImplicit<TDAC<psiReactionThermo,const<hConst<incompressiblePerfectGas<specie>>,sensibleEnthalpy>>>                 0;
    EulerImplicit<TDAC<psiReactionThermo,const<hConst<perfectFluid<specie>>,sensibleEnthalpy>>>                             0;
    EulerImplicit<TDAC<psiReactionThermo,const<hConst<perfectGas<specie>>,sensibleEnthalpy>>>                               0;
    EulerImplicit<TDAC<psiReactionThermo,const<hConst<rhoConst<specie>>,sensibleEnthalpy>>>                                 0;
    EulerImplicit<TDAC<psiReactionThermo,polynomial<hPolynomial<icoPolynomial<specie>>,sensibleEnthalpy>>>                  0;
    EulerImplicit<TDAC<psiReactionThermo,polynomial<hPolynomial<icoPolynomial<specie>>,sensibleInternalEnergy>>>            0;
    EulerImplicit<TDAC<psiReactionThermo,sutherland<janaf<incompressiblePerfectGas<specie>>,sensibleEnthalpy>>>             0;
    EulerImplicit<TDAC<psiReactionThermo,sutherland<janaf<incompressiblePerfectGas<specie>>,sensibleInternalEnergy>>>       0;
    EulerImplicit<TDAC<psiReactionThermo,sutherland<janaf<perfectGas<specie>>,sensibleEnthalpy>>>                           0;
    EulerImplicit<TDAC<psiReactionThermo,sutherland<janaf<perfectGas<specie>>,sensibleInternalEnergy>>>                     0;
    EulerImplicit<TDAC<rhoReactionThermo,const<eConst<adiabaticPerfectFluid<specie>>,sensibleInternalEnergy>>>              0;
    EulerImplicit<TDAC<rhoReactionThermo,const<eConst<incompressiblePerfectGas<specie>>,sensibleInternalEnergy>>>           0;
    EulerImplicit<TDAC<rhoReactionThermo,const<eConst<perfectFluid<specie>>,sensibleInternalEnergy>>>                       0;
    EulerImplicit<TDAC<rhoReactionThermo,const<eConst<perfectGas<specie>>,sensibleInternalEnergy>>>                         0;
    EulerImplicit<TDAC<rhoReactionThermo,const<eConst<rhoConst<specie>>,sensibleInternalEnergy>>>                           0;
    EulerImplicit<TDAC<rhoReactionThermo,const<hConst<adiabaticPerfectFluid<specie>>,sensibleEnthalpy>>>                    0;
    EulerImplicit<TDAC<rhoReactionThermo,const<hConst<incompressiblePerfectGas<specie>>,sensibleEnthalpy>>>                 0;
    EulerImplicit<TDAC<rhoReactionThermo,const<hConst<perfectFluid<specie>>,sensibleEnthalpy>>>                             0;
    EulerImplicit<TDAC<rhoReactionThermo,const<hConst<perfectGas<specie>>,sensibleEnthalpy>>>                               0;
    EulerImplicit<TDAC<rhoReactionThermo,const<hConst<rhoConst<specie>>,sensibleEnthalpy>>>                                 0;
    EulerImplicit<TDAC<rhoReactionThermo,polynomial<hPolynomial<icoPolynomial<specie>>,sensibleEnthalpy>>>                  0;
    EulerImplicit<TDAC<rhoReactionThermo,polynomial<hPolynomial<icoPolynomial<specie>>,sensibleInternalEnergy>>>            0;
    EulerImplicit<TDAC<rhoReactionThermo,sutherland<janaf<incompressiblePerfectGas<specie>>,sensibleEnthalpy>>>             0;
    EulerImplicit<TDAC<rhoReactionThermo,sutherland<janaf<incompressiblePerfectGas<specie>>,sensibleInternalEnergy>>>       0;
    EulerImplicit<TDAC<rhoReactionThermo,sutherland<janaf<perfectGas<specie>>,sensibleEnthalpy>>>                           0;
    EulerImplicit<TDAC<rhoReactionThermo,sutherland<janaf<perfectGas<specie>>,sensibleInternalEnergy>>>                     0;
    EulerImplicit<standard<psiReactionThermo,const<eConst<adiabaticPerfectFluid<specie>>,sensibleInternalEnergy>>>          0;
    EulerImplicit<standard<psiReactionThermo,const<eConst<incompressiblePerfectGas<specie>>,sensibleInternalEnergy>>>       0;
    EulerImplicit<standard<psiReactionThermo,const<eConst<perfectFluid<specie>>,sensibleInternalEnergy>>>                   0;
    EulerImplicit<standard<psiReactionThermo,const<eConst<perfectGas<specie>>,sensibleInternalEnergy>>>                     0;
    EulerImplicit<standard<psiReactionThermo,const<eConst<rhoConst<specie>>,sensibleInternalEnergy>>>                       0;
    EulerImplicit<standard<psiReactionThermo,const<hConst<adiabaticPerfectFluid<specie>>,sensibleEnthalpy>>>                0;
    EulerImplicit<standard<psiReactionThermo,const<hConst<incompressiblePerfectGas<specie>>,sensibleEnthalpy>>>             0;
    EulerImplicit<standard<psiReactionThermo,const<hConst<perfectFluid<specie>>,sensibleEnthalpy>>>                         0;
    EulerImplicit<standard<psiReactionThermo,const<hConst<perfectGas<specie>>,sensibleEnthalpy>>>                           0;
    EulerImplicit<standard<psiReactionThermo,const<hConst<rhoConst<specie>>,sensibleEnthalpy>>>                             0;
    EulerImplicit<standard<psiReactionThermo,polynomial<hPolynomial<icoPolynomial<specie>>,sensibleEnthalpy>>>              0;
    EulerImplicit<standard<psiReactionThermo,polynomial<hPolynomial<icoPolynomial<specie>>,sensibleInternalEnergy>>>        0;
    EulerImplicit<standard<psiReactionThermo,sutherland<janaf<incompressiblePerfectGas<specie>>,sensibleEnthalpy>>>         0;
    EulerImplicit<standard<psiReactionThermo,sutherland<janaf<incompressiblePerfectGas<specie>>,sensibleInternalEnergy>>>   0;
    EulerImplicit<standard<psiReactionThermo,sutherland<janaf<perfectGas<specie>>,sensibleEnthalpy>>>                       0;
    EulerImplicit<standard<psiReactionThermo,sutherland<janaf<perfectGas<specie>>,sensibleInternalEnergy>>>                 0;
    EulerImplicit<standard<rhoReactionThermo,const<eConst<adiabaticPerfectFluid<specie>>,sensibleInternalEnergy>>>          0;
    EulerImplicit<standard<rhoReactionThermo,const<eConst<incompressiblePerfectGas<specie>>,sensibleInternalEnergy>>>       0;
    EulerImplicit<standard<rhoReactionThermo,const<eConst<perfectFluid<specie>>,sensibleInternalEnergy>>>                   0;
    EulerImplicit<standard<rhoReactionThermo,const<eConst<perfectGas<specie>>,sensibleInternalEnergy>>>                     0;
    EulerImplicit<standard<rhoReactionThermo,const<eConst<rhoConst<specie>>,sensibleInternalEnergy>>>                       0;
    EulerImplicit<standard<rhoReactionThermo,const<hConst<adiabaticPerfectFluid<specie>>,sensibleEnthalpy>>>                0;
    EulerImplicit<standard<rhoReactionThermo,const<hConst<incompressiblePerfectGas<specie>>,sensibleEnthalpy>>>             0;
    EulerImplicit<standard<rhoReactionThermo,const<hConst<perfectFluid<specie>>,sensibleEnthalpy>>>                         0;
    EulerImplicit<standard<rhoReactionThermo,const<hConst<perfectGas<specie>>,sensibleEnthalpy>>>                           0;
    EulerImplicit<standard<rhoReactionThermo,const<hConst<rhoConst<specie>>,sensibleEnthalpy>>>                             0;
    EulerImplicit<standard<rhoReactionThermo,polynomial<hPolynomial<icoPolynomial<specie>>,sensibleEnthalpy>>>              0;
    EulerImplicit<standard<rhoReactionThermo,polynomial<hPolynomial<icoPolynomial<specie>>,sensibleInternalEnergy>>>        0;
    EulerImplicit<standard<rhoReactionThermo,sutherland<janaf<incompressiblePerfectGas<specie>>,sensibleEnthalpy>>>         0;
    EulerImplicit<standard<rhoReactionThermo,sutherland<janaf<incompressiblePerfectGas<specie>>,sensibleInternalEnergy>>>   0;
    EulerImplicit<standard<rhoReactionThermo,sutherland<janaf<perfectGas<specie>>,sensibleEnthalpy>>>                       0;
    EulerImplicit<standard<rhoReactionThermo,sutherland<janaf<perfectGas<specie>>,sensibleInternalEnergy>>>                 0;
    EulerSI                                             0;
    FaceCellWave                                        0;
    GAMG                                                0;
    GAMGAgglomeration                                   0;
    GAMGInterface                                       0;
    GAMGInterfaceField                                  0;
    Gauss                                               0;
    GaussSeidel                                         0;