/*---------------------------------------------------------------------------*
Caelus 9.04
Web:   www.caelus-cml.com
\*---------------------------------------------------------------------------*/
FoamFile
{
    version         2.0;
    format          ascii;
    class           dictionary;
    location        "system";
    object          fvSchemes;
}
//------------------------------------------------------------------------------

ddtSchemes
{
    default         Euler;
}

gradSchemes
{
    default         Gauss linear;
    grad(p)         Gauss linear;
    grad(U)         Gauss linear;
}

divSchemes
{
    default         none;
    div(phi,U)      Gauss linearUpwindBJ grad(U);
    div(phi,T)      Gauss linearUpwindBJ grad(T);
    div((nuEff*dev(T(grad(U))))) Gauss linear;
}

laplacianSchemes
{
    default         none;
    laplacian(rAUf,p_rgh) Gauss linear corrected;
    laplacian(nu,U) Gauss linear corrected;
    laplacian(nuEff,U) Gauss linear corrected;
    laplacian(alphaEff,T) Gauss linear corrected;
    laplacian(p_rgh) Gauss linear corrected;
    laplacian(kappaEff,T) Gauss linear corrected;
    laplacian((1|A(U)),p) Gauss linear corrected;
    laplacian((1|A(U)),p_rgh) Gauss linear corrected;
}

interpolationSchemes
{
    default         linear;
    interpolate(HbyA) linear;
}

snGradschemes
{
    default         corrected;
}

