/*---------------------------------------------------------------------------*
Caelus 6.10
Web:   www.caelus-cml.com
\*---------------------------------------------------------------------------*/
FoamFile
{
    version     2.0;
    format      ascii;
    class       dictionary;
    location    "system";
    object      fvSolution;
}
// * * * * * * * * * * * * * * * * * * * * * * * * * * * * * * * * * * * * * //

solvers
{
    p
    {
        solver          PCG;
        preconditioner  SSGS;
        tolerance       1e-06;
        relTol          0.01;
    }

    Urel
    {
        solver          PBiCG;
        preconditioner  USGS;
        tolerance       1e-05;
        relTol          0.1;
    }

    k
    {
        solver          PBiCG;
        preconditioner  USGS;
        tolerance       1e-05;
        relTol          0.1;
    }

    epsilon
    {
        solver          PBiCG;
        preconditioner  USGS;
        tolerance       1e-05;
        relTol          0.1;
    }

    omega
    {
        solver          PBiCG;
        preconditioner  USGS;
        tolerance       1e-05;
        relTol          0.1;
    }

    R
    {
        solver          PBiCG;
        preconditioner  USGS;
        tolerance       1e-05;
        relTol          0.1;
    }

    nuTilda
    {
        solver          PBiCG;
        preconditioner  USGS;
        tolerance       1e-05;
        relTol          0.1;
    }
}

SIMPLE
{
    nNonOrthogonalCorrectors 0;
}

relaxationFactors
{
    fields
    {
        p               0.3;
    }
    equations
    {
        Urel            0.7;
        k               0.7;
        epsilon         0.7;
        omega           0.7;
        R               0.7;
        nuTilda         0.7;
    }
}


// ************************************************************************* //
