/*---------------------------------------------------------------------------*
Caelus 5.10
Web:   www.caelus-cml.com
\*---------------------------------------------------------------------------*/
FoamFile
{
    version         2.0;
    format          ascii;

    root            "";
    case            "";
    instance        "";
    local           "";

    class           dictionary;
    object          decomposeParDict;
}

// * * * * * * * * * * * * * * * * * * * * * * * * * * * * * * * * * * * * * //


numberOfSubdomains 2;

method          scotch;

simpleCoeffs
{
    n               (4 1 1);
    delta           0.0001;
}


// ************************************************************************* //
