/*---------------------------------------------------------------------------*
Caelus 6.04
Web:   www.caelus-cml.com
\*---------------------------------------------------------------------------*/
FoamFile
{
    version         2.0;
    format          ascii;
    class           dictionary;
    object          fvSchemes;
}

// * * * * * * * * * * * * * * * * * * * * * * * * * * * * * * * * * * * * * //

ddtSchemes
{
    default         Euler;
}

gradSchemes
{
    default         Gauss skewCorrected linear;
}

divSchemes
{
    default         none;
    div(((muEff*grad(U))&U)) Gauss skewCorrected linear;
    div(((muEff*dev2(T(grad(U))))&U)) Gauss skewCorrected linear;
    div((muEff*dev2(T(grad(U))))) Gauss skewCorrected linear;
}

laplacianSchemes
{
    default         Gauss skewCorrected linear corrected;
}

interpolationSchemes
{
    default         skewCorrected linear;
}

snGradSchemes
{
    default         skewCorrected corrected;
}

fluxRequired
{
    default           no;
    p;
}

Flux    roeFlux;
Limiter VLimiter;


// ************************************************************************* //
