/*---------------------------------------------------------------------------*
Caelus 5.04
Web:   www.caelus-cml.com
\*---------------------------------------------------------------------------*/
FoamFile
{
    version     2.0;
    format      ascii;
    class       dictionary;
    object      decomposeParDict;
}

// * * * * * * * * * * * * * * * * * * * * * * * * * * * * * * * * * * * * * //

numberOfSubdomains 6;

method       scotch;

simpleCoeffs
{
    n               (4 1 1);
    delta           0.001;
}

manualCoeffs
{
    dataFile        "cellDecomposition";
}


// ************************************************************************* //
