/*-------------------------------------------------------------------------------*
Caelus 9.04
Web:   www.caelus-cml.com
\*------------------------------------------------------------------------------*/

FoamFile
{
    version     2.0;
    format      ascii;
    class       dictionary;
    object      postProcessingDict;
}
// * * * * * * * * * * * * * * * * * * * * * * * * * * * * * * * * * * * * * //

functions
{
    turbulenceFields1
    {
        type            turbulenceFields;
        functionObjectLibs ("libutilityFunctionObjects.so");
        enabled         true;
        outputControl   timeStep;
        outputInterval  1;

        fields
        (
            R
        );
    }
}

// ************************************************************************* //
