/*---------------------------------------------------------------------------*
Caelus 7.04
Web:   www.caelus-cml.com
\*---------------------------------------------------------------------------*/
FoamFile
{
    version     2.0;
    format      ascii;
    class       dictionary;
    object      controlDict;
}
// * * * * * * * * * * * * * * * * * * * * * * * * * * * * * * * * * * * * * //

application     waveDyMSolver;

startFrom       startTime;

startTime       0;

stopAt          endTime;

endTime         100;

deltaT          0.001;

writeControl    adjustableRunTime;

writeInterval   0.5;

purgeWrite      0;

writeFormat     ascii;

writePrecision  6;

writeCompression uncompressed;

timeFormat      general;

timePrecision   6;

runTimeModifiable yes;

adjustTimeStep  yes;

maxCo           0.25;

maxAlphaCo      0.25;

maxDeltaT       1;

// ************************************************************************* //
