/*---------------------------------------------------------------------------*
Caelus 8.04
Web:   www.caelus-cml.com
\*---------------------------------------------------------------------------*/
FoamFile
{
    version     2.0;
    format      ascii;
    class       dictionary;
    object      controlDict;
}
// * * * * * * * * * * * * * * * * * * * * * * * * * * * * * * * * * * * * * //

application     buoyantSimpleSolver;

startFrom       startTime;

startTime       0;

stopAt          endTime;

endTime         2500;

deltaT          1;

writeControl    timeStep;

writeInterval   50;

purgeWrite      3;

writeFormat     ascii;

writePrecision  6;

writeCompression true;

timeFormat      general;

timePrecision   6;

runTimeModifiable true;

libs ("libthermoBaffleModels.so");

// ************************************************************************* //
