/*---------------------------------------------------------------------------*
Caelus 9.04
Web:   www.caelus-cml.com
\*---------------------------------------------------------------------------*/
FoamFile
{
    version     2.0;
    format      ascii;
    class       dictionary;
    object      dynamicMeshDict;
}
// * * * * * * * * * * * * * * * * * * * * * * * * * * * * * * * * * * * * * //

dynamicFvMesh      dynamicRefineFvMesh;

mixerFvMeshCoeffs
{
    coordinateSystem
    {
        type            cylindrical;
        origin          (0 0 0);
        axis            (0 0 1);
        direction       (1 0 0);
    }

    rpm             10;

    slider
    {
        inside      insideSlider;
        outside     outsideSlider;
    }
}

// Refinement
dynamicRefineFvMeshCoeffs
{
    // Refinement mode - Options: timeStepInterval or timeInterval
    refineMode timeStepInterval;

    // How often to refine in timestepInterval mode
    refineInterval  10;

    // How often to refine in timeInterval mode
    refineTimeInterval 0.0001;

    // Number of steps remaining before timestep can be changed
    // (default = 5)
    nStepsToStartTimeChange 5;

    // Field to be refinement on
    field           alpha1;

    // Refine field inbetween lower..upper
    lowerRefineLevel 0.001;
    upperRefineLevel 0.999;

    // Allow unrefinement (optional, default = true) 
    allowUnrefinement true;

    // If value < unrefineLevel (default=GREAT) unrefine
    unrefineLevel   10;

    // Have slower than 2:1 refinement
    nBufferLayers   1;

    // Refine cells only up to maxRefinement levels
    maxRefinement   2;

    // Stop refinement if maxCells reached
    maxCells        200000;

    // Flux field and corresponding velocity field. Fluxes on changed
    // faces get recalculated by interpolating the velocity. Use 'none'
    // on surfaceScalarFields that do not need to be reinterpolated, use
    // NaN to detect use of mapped variable
    correctFluxes
    (
        (phi none)  //NaN)   //none)
        (nHatf none)   //none)
        (rho*phi none)   //none)
        (ghf none)  //NaN)   //none)
    );

    // Minimum cell volume 
    minimumVolume 1.25e-10;
        
    // Write the refinement level and protected cells as a volScalarField
    dumpLevel       true;
}

// ************************************************************************* //
