/*---------------------------------------------------------------------------*
Caelus 5.10
Web:   www.caelus-cml.com
\*---------------------------------------------------------------------------*/
FoamFile
{
    version     2.0;
    format      ascii;
    class       dictionary;
    object      RASProperties;
}
// * * * * * * * * * * * * * * * * * * * * * * * * * * * * * * * * * * * * * //

RASModel            kOmegaSST;

turbulence          on;

printCoeffs         on;


// ************************************************************************* //
