/*---------------------------------------------------------------------------*
Caelus 9.04
Web:   www.caelus-cml.com
\*---------------------------------------------------------------------------*/
FoamFile
{
    version     2.0;
    format      ascii;
    class       dictionary;
    object      fvSchemes;
}
// * * * * * * * * * * * * * * * * * * * * * * * * * * * * * * * * * * * * * //

ddtSchemes
{
    default backward;
    ddt(alpha) Euler;
}

gradSchemes
{
    default         Gauss linear;

    grad(nuTilda)   cellLimited Gauss linear 1;
    grad(U)         cellLimited Gauss linear 1;
}

divSchemes
{
    default         none;
    div(rhoPhi,U)  Gauss linear;
    div(phi,alpha)  Gauss linearVanLeer;
    div(phirb,alpha) Gauss interfaceCompression;
    div((muEff*dev(T(grad(U)))))  Gauss linear;
}

laplacianSchemes
{
    default         Gauss linear limited 0.33;
}

interpolationSchemes
{
    default         linear;
}

snGradSchemes
{
    default         limited 0.33;
}


// ************************************************************************* //
