/*---------------------------------------------------------------------------*\
Caelus 9.04
 Web:      www.caelus-cml.com 
\*---------------------------------------------------------------------------*/
FoamFile
{
    version     2.0;
    format      ascii;
    class       volScalarField;
    location    "0";
    object      k;
}
// * * * * * * * * * * * * * * * * * * * * * * * * * * * * * * * * * * * * * //

dimensions      [0 2 -2 0 0 0 0];

internalField   uniform 1e-005;

boundaryField
{
    airfoil
    {
        type            fixedValue;
        value           uniform 0;
    }
    farfield
    {
        type            inletOutlet;
        inletValue      uniform 1e-005;
        value           uniform 1e-005;
    }
    frontBack
    {
        type            empty;
    }
}


// ************************************************************************* //
