/*---------------------------------------------------------------------------*
Caelus 9.04
Web:   www.caelus-cml.com
\*---------------------------------------------------------------------------*/
FoamFile
{
    version     2.0;
    format      ascii;
    class       dictionary;
    location    "system";
    object      fvSchemes;
}
// * * * * * * * * * * * * * * * * * * * * * * * * * * * * * * * * * * * * * //

ddtSchemes
{
    default         steadyState;
}

gradSchemes
{
    default         Gauss linear;
}

divSchemes
{
    default         none;
    div(phi,U)      Gauss upwind;
    div(phi,T)      Gauss upwind;
    div(phi,k)      Gauss upwind;
    div(phi,epsilon) Gauss upwind;
    div(phi,R)      Gauss upwind;
    div(R)          Gauss linear;
    div((nuEff*dev(T(grad(U))))) Gauss linear;
}

laplacianSchemes
{
    default         none;
    laplacian(rAUf,p_rgh) Gauss linear limited 0.333;
    laplacian(nuEff,U) Gauss linear limited 0.333;
    laplacian((1|A(U)),p_rgh) Gauss linear limited 0.333;
    laplacian(alphaEff,T) Gauss linear limited 0.333;
    laplacian(DkEff,k) Gauss linear limited 0.333;
    laplacian(DepsilonEff,epsilon) Gauss linear limited 0.333;
    laplacian(DREff,R) Gauss linear limited 0.333;
}

interpolationSchemes
{
    default         linear;
}

snGradSchemes
{
    default         limited 0.333;
}


// ************************************************************************* //
