/*---------------------------------------------------------------------------*
Caelus 9.04
Web:   www.caelus-cml.com
\*---------------------------------------------------------------------------*/
FoamFile
{
    version     2.0;
    format      ascii;
    class       dictionary;
    location    "system";
    object      fvSolution;
}
// * * * * * * * * * * * * * * * * * * * * * * * * * * * * * * * * * * * * * //

solvers
{
    p
    {
        solver          PCG;
        preconditioner  SSGS;
        tolerance       1e-06;
        relTol          0.01;
    }
    pCorr
    {
        solver          PCG;
        preconditioner  SSGS;
        tolerance       1e-06;
        relTol          0.01;
    }

    U
    {
        solver          PBiCGStab;
        preconditioner  USGS;
        tolerance       1e-05;
        relTol          0.1;
    }

    k
    {
        solver          PBiCGStab;
        preconditioner  USGS;
        tolerance       1e-05;
        relTol          0.1;
    }

    epsilon
    {
        solver          PBiCGStab;
        preconditioner  USGS;
        tolerance       1e-05;
        relTol          0.1;
    }

    R
    {
        solver          PBiCGStab;
        preconditioner  USGS;
        tolerance       1e-05;
        relTol          0.1;
    }

    nuTilda
    {
        solver          PBiCGStab;
        preconditioner  USGS;
        tolerance       1e-05;
        relTol          0.1;
    }
}

SIMPLE
{
    	nNonOrthogonalCorrectors 	0;
	consistent                      0;
    	correctionForm                  1;


    residualControl
    {
        U               1e-3;
        "(k|epsilon|omega)" 1e-3;
    }
}

relaxationFactors
{
    fields
    {
        p               0.3;
        pCorr           0.3;
    }
    equations
    {
        U               0.7;
        k               0.7;
        epsilon         0.7;
        R               0.7;
        nuTilda         0.7;
    }
}


// ************************************************************************* //
