/*---------------------------------------------------------------------------*
Caelus 9.04
Web:   www.caelus-cml.com
\*---------------------------------------------------------------------------*/
FoamFile
{
    version         2.0;
    format          ascii;
    class           dictionary;
    object          fvSchemes;
}

// * * * * * * * * * * * * * * * * * * * * * * * * * * * * * * * * * * * * * //

ddtSchemes
{
    default         localEuler rDeltaT;
}

gradSchemes
{
    default         Gauss skewCorrected linear;
}

divSchemes
{
    default         none;
    div(phi,U)      Gauss skewCorrected linearDL;
    div(phiHat,p)   Gauss skewCorrected linearDL;
    div(phi,h)      Gauss skewCorrected linearDL;
    div((muEff*dev2(T(grad(U))))) Gauss skewCorrected linear;
    div(U,p)        Gauss skewCorrected linearDL;
}

laplacianSchemes
{
    default         Gauss skewCorrected linear corrected;
}

interpolationSchemes
{
    default           skewCorrected linear;
    reconstruct(T)    linearDL;
}

snGradSchemes
{
    default           skewCorrected corrected;
}


// ************************************************************************* //
