/*---------------------------------------------------------------------------*\
Caelus 9.04
 Web:      www.caelus-cml.com 
\*---------------------------------------------------------------------------*/
FoamFile
{
    version     2.0;
    format      ascii;
    class       volVectorField;
    location    "0";
    object      U;
}
// * * * * * * * * * * * * * * * * * * * * * * * * * * * * * * * * * * * * * //

dimensions      [0 1 -1 0 0 0 0];

internalField   uniform (69.4361 0 0);

boundaryField
{
    bottom
    {
        type            symmetryPlane;
    }
    inflow
    {
        type            fixedValue;
        value           uniform (69.4361 0 0);
    }
    left
    {
        type            empty;
    }
    outflow
    {
        type            zeroGradient;
    }
    right
    {
        type            empty;
    }
    top
    {
        type            symmetryPlane;
    }
    wall
    {
        type            noSlipWall;
    }
}


// ************************************************************************* //
