/*---------------------------------------------------------------------------*
Caelus 9.04
Web:   www.caelus-cml.com
\*---------------------------------------------------------------------------*/
FoamFile
{
    version     2.0;
    format      ascii;
    class       volScalarField;
    object      p;
}
// * * * * * * * * * * * * * * * * * * * * * * * * * * * * * * * * * * * * * //

dimensions      [1 -1 -2 0 0 0 0];

internalField   uniform 100000;

boundaryField
{
    floor
    {
        type            calculated;
        value           $internalField;
    }

    ceiling
    {
        type            calculated;
        value           $internalField;
    }

    fixedWalls
    {
        type            calculated;
        value           $internalField;
    }

    box
    {
        type            calculated;
        value           $internalField;
    }
}

// ************************************************************************* //
